Version 4
SHEET 1 880 680
WIRE 384 -304 384 -336
WIRE 384 -112 384 -240
WIRE -32 -32 -32 -96
WIRE -32 80 -32 48
WIRE 384 112 384 -32
WIRE 384 112 368 112
WIRE 208 128 144 128
WIRE 304 128 288 128
WIRE 384 144 368 144
WIRE 144 160 144 128
WIRE -32 240 -32 160
WIRE 384 240 384 144
WIRE 144 368 144 240
WIRE 384 368 384 320
FLAG -32 240 0
FLAG -32 -96 12VDC
FLAG 384 -336 12VDC
FLAG 384 368 0
FLAG 144 368 0
SYMBOL voltage 144 144 R0
WINDOW 123 0 0 Left 0
WINDOW 39 0 0 Left 0
SYMATTR InstName V1
SYMATTR Value 3.3
SYMBOL res -48 -48 R0
SYMATTR InstName R1
SYMATTR Value 0.05
SYMBOL res 368 224 R0
SYMATTR InstName R2
SYMATTR Value 100
SYMBOL res 304 112 R90
WINDOW 0 0 56 VBottom 2
WINDOW 3 32 56 VTop 2
SYMATTR InstName R3
SYMATTR Value 9.1k
SYMBOL bv -32 64 R0
SYMATTR InstName B1
SYMATTR Value V=TIME
SYMBOL LED 368 -304 R0
SYMATTR InstName D1
SYMATTR Value NSCW100
SYMBOL res 368 -128 R0
SYMATTR InstName R4
SYMATTR Value 130
SYMBOL BC847BQB 336 128 R0
WINDOW 3 -29 54 Top 2
SYMATTR InstName U1
TEXT -64 392 Left 2 !.tran 18
